%chk=fluorescein.chk
#p B3LYP/6-31+G(d) Opt Freq

Fluorescein optimization and IR frequency calculation

0 1
 C       1.123   -0.234    0.000
 C       2.312    0.123    0.000
 C       3.000    1.456    0.000
 C       2.112    2.567    0.000
 C       0.912    2.210    0.000
 C       0.223    0.978    0.000
 O      -1.001    1.223    0.000
 C      -2.002    0.456    0.000
 O      -1.456   -0.789    0.000
 C       4.320    1.789    0.000
 C       5.123    0.678    0.000
 O       4.789   -0.512    0.000
 C       6.234    0.234    0.000
 H       1.001   -1.231    0.000
 H       3.456    3.000    0.000
 H       0.123    3.000    0.000
 H      -2.789    1.123    0.000
 H       6.789    0.789    0.000
 H       6.000   -0.789    0.000
